30
	Energy:       4.9419142
C         -2.59766        2.11520        0.77669
C         -2.55635        0.79283        0.32761
C         -1.54303        0.39912       -0.55499
C         -1.64128        3.03541        0.35310
C         -0.63215        2.64607       -0.52846
C         -0.58963        1.32559       -0.97963
C         -3.58870       -0.18656        0.79086
C         -1.46143       -0.95718       -1.03811
H         -3.37827        2.43529        1.46322
H         -1.68688        4.05972        0.71605
H          0.19792        1.01624       -1.66433
C          0.41555        3.64561       -0.99268
C          1.71267        3.38190       -0.35035
H          0.10283        4.66629       -0.75996
H          0.53336        3.58297       -2.07704
C          2.75308        3.13464        0.15059
C          4.06853        2.82427        0.73589
C          5.17568        3.77178        0.22467
H          4.32338        1.79275        0.48108
H          3.99992        2.88416        1.82502
N          6.48975        3.32368        0.72059
H          6.71346        2.40529        0.34359
H          7.21170        3.96821        0.40250
C          4.90380        5.20322        0.63865
H          5.18413        3.75896       -0.86899
O          5.72830        6.09270        0.56643
H          4.00372        5.82023        0.77922
O         -4.49868        0.07504        1.55214
H         -3.91659       -1.23343        0.70559
N         -1.40692       -2.03583       -1.41176
